1LT
                    3D
 Structure written by MMmdl.
 52 54  0  0  1  0            999 V2000
   -3.0630  -11.4150   16.3880 C   0  0  0  0  0  0
   -1.5440  -10.0700   15.2500 C   0  0  0  0  0  0
    0.0470   -8.4580   14.1860 C   0  0  0  0  0  0
    1.3830   -4.5360   13.9550 O   0  0  0  0  0  0
   -4.3370  -10.9700   19.4230 C   0  0  0  0  0  0
   -4.6480  -10.7810   20.7930 C   0  0  0  0  0  0
   -2.6630   -9.5410   21.1070 C   0  0  0  0  0  0
   -2.2790   -9.6740   19.7800 C   0  0  0  0  0  0
   -1.8020   -8.7500   22.1010 C   0  0  0  0  0  0
   -0.6640   -8.0250   21.3710 C   0  0  0  0  0  0
   -2.7630   -7.7660   22.7580 C   0  0  0  0  0  0
   -1.2320   -9.7180   23.1670 C   0  0  0  0  0  0
   -0.5510   -8.9900   24.0320 F   0  0  0  0  0  0
   -2.2740  -10.3210   23.7740 F   0  0  0  0  0  0
   -0.4110  -10.6480   22.6210 F   0  0  0  0  0  0
   -3.7930  -10.0720   21.5480 N   0  0  0  0  0  0
   -3.1540  -10.4280   18.9190 C   0  0  0  0  0  0
   -2.7080  -10.5230   17.4600 C   0  0  0  0  0  0
   -4.0330  -12.5740   16.4770 C   0  0  0  0  0  0
   -1.5670   -9.4130   16.8270 S   0  0  0  0  0  0
   -2.4060  -11.1020   15.2280 N   0  0  0  0  0  0
   -0.7810   -9.6010   14.1140 N   0  0  0  0  0  0
    0.1630   -7.8340   15.1880 O   0  0  0  0  0  0
    0.7590   -8.0420   13.0100 N   0  0  0  0  0  0
    1.7350   -6.7540   12.9500 C   0  0  2  0  0  0
    0.8850   -5.5250   13.4120 C   0  0  0  0  0  0
   -0.5130   -5.5510   13.2060 N   0  0  0  0  0  0
    2.1570   -6.6620   11.7480 C   0  0  0  0  0  0
    1.8480   -8.0030   11.0600 C   0  0  0  0  0  0
    0.7300   -8.6060   11.8660 C   0  0  0  0  0  0
   -5.0110  -11.5258   18.7880 H   0  0  0  0  0  0
   -5.5532  -11.2026   21.2044 H   0  0  0  0  0  0
   -1.3605   -9.2221   19.4358 H   0  0  0  0  0  0
   -0.0645   -7.4697   22.0924 H   0  0  0  0  0  0
   -0.0348   -8.7552   20.8620 H   0  0  0  0  0  0
   -1.0830   -7.3343   20.6392 H   0  0  0  0  0  0
   -2.2226   -7.1602   23.4853 H   0  0  0  0  0  0
   -3.1968   -7.1177   21.9967 H   0  0  0  0  0  0
   -3.5578   -8.3154   23.2625 H   0  0  0  0  0  0
   -4.1002  -13.0675   15.5075 H   0  0  0  0  0  0
   -3.6812  -13.2864   17.2232 H   0  0  0  0  0  0
   -5.0170  -12.2037   16.7646 H   0  0  0  0  0  0
   -0.8302  -10.0945   13.2341 H   0  0  0  0  0  0
    2.5770   -6.8965   13.6274 H   0  0  0  0  0  0
   -0.9434   -6.3503   12.7633 H   0  0  0  0  0  0
   -1.0816   -4.7703   13.5015 H   0  0  0  0  0  0
    3.2345   -6.4972   11.7537 H   0  0  0  0  0  0
    1.6234   -5.8608   11.2367 H   0  0  0  0  0  0
    2.7241   -8.6490   11.1174 H   0  0  0  0  0  0
    1.5009   -7.8163   10.0437 H   0  0  0  0  0  0
   -0.2225   -8.3927   11.3808 H   0  0  0  0  0  0
    0.9046   -9.6754   11.9846 H   0  0  0  0  0  0
  1 18  2  0  0  0
  1 19  1  0  0  0
  1 21  1  0  0  0
  2 20  1  0  0  0
  2 21  2  0  0  0
  2 22  1  0  0  0
  3 22  1  0  0  0
  3 23  2  0  0  0
  3 24  1  0  0  0
  4 26  2  0  0  0
  5  6  1  0  0  0
  5 17  2  0  0  0
  5 31  1  0  0  0
  6 16  2  0  0  0
  6 32  1  0  0  0
  7  8  2  0  0  0
  7  9  1  0  0  0
  7 16  1  0  0  0
  8 17  1  0  0  0
  8 33  1  0  0  0
  9 10  1  0  0  0
  9 11  1  0  0  0
  9 12  1  0  0  0
 10 34  1  0  0  0
 10 35  1  0  0  0
 10 36  1  0  0  0
 11 37  1  0  0  0
 11 38  1  0  0  0
 11 39  1  0  0  0
 12 13  1  0  0  0
 12 14  1  0  0  0
 12 15  1  0  0  0
 17 18  1  0  0  0
 18 20  1  0  0  0
 19 40  1  0  0  0
 19 41  1  0  0  0
 19 42  1  0  0  0
 22 43  1  0  0  0
 24 25  1  0  0  0
 24 30  1  0  0  0
 25 26  1  0  0  0
 25 28  1  0  0  0
 25 44  1  0  0  0
 26 27  1  0  0  0
 27 45  1  0  0  0
 27 46  1  0  0  0
 28 29  1  0  0  0
 28 47  1  0  0  0
 28 48  1  0  0  0
 29 30  1  0  0  0
 29 49  1  0  0  0
 29 50  1  0  0  0
 30 51  1  0  0  0
 30 52  1  0  0  0
M  END
> <i_m_stars>
0

> <s_m_entry_id>
61

> <s_m_entry_name>
Structure61

> <s_pdb_PDB_TITLE>
CRYSTAL STRUCTURE OF PI3KALPHA IN COMPLEX WITH THE INHIBITOR NVP- BYL719

> <s_pdb_PDB_ID>
7PG6

> <r_pdb_PDB_CRYST1_a>
104.87

> <r_pdb_PDB_CRYST1_b>
105.19

> <r_pdb_PDB_CRYST1_c>
135.74

> <r_pdb_PDB_CRYST1_alpha>
90

> <r_pdb_PDB_CRYST1_beta>
90

> <r_pdb_PDB_CRYST1_gamma>
90

> <s_pdb_PDB_CRYST1_Space_Group>
P 21 21 21

> <i_pdb_PDB_CRYST1_z>
4

> <s_pdb_PDB_CLASSIFICATION>
TRANSFERASE

> <s_pdb_PDB_DEPOSITION_DATE>
13-AUG-21

> <s_pdb_PDB_format_version>
3.30

> <r_pdb_PDB_R>
0.187000006437302

> <r_pdb_PDB_Rfree>
0.239999994635582

> <r_pdb_PDB_RESOLUTION>
2.5

> <s_pdb_PDB_EXPDTA>
X-RAY DIFFRACTION

> <r_pdb_PDB_EXPDTA_TEMPERATURE>
100

> <r_pdb_PDB_EXPDTA_PH>
6.5

> <s_pdb_PDB_REMARK_350_Biomolecule_1_Chains>
A, B

> <s_pdb_PDB_REMARK_350_Biomolecule_1_Transformation_1>
1.000000 0.000000 0.000000   0.000000;0.000000 1.000000 0.000000   0.000000;0.000000 0.000000 1.000000   0.000000

> <s_m_Source_Path>
D:\Research\Benchmark_Tarpass\Targets\PI3Kalpha

> <s_m_Source_File>
7pg6.pdb

> <i_m_Source_File_Index>
1

> <s_ppw_entry_id_backup>
59

> <b_ppw_prepared>
1

> <s_ppw_prepared_with_version>
2018-1

> <b_ppw_assigned_bond_orders>
1

> <b_ppw_added_hydrogens>
1

> <b_ppw_treated_metals>
1

> <b_ppw_created_disulfur>
1

> <b_ppw_deleted_far_waters>
1

> <i_psp_model_num>
0

> <r_psp_Prime_Coulomb>
-31447.4191646872

> <r_psp_Prime_Covalent>
5227.07225495088

> <r_psp_Prime_vdW>
2308.54672850587

> <r_psp_Prime_Solv_GB>
-7414.7393071218

> <r_psp_Prime_Lipo>
-2550.35204179048

> <r_psp_Prime_Energy>
-34661.5277586137

> <s_psp_Prime_Energy_Force_Field>
OPLS3

> <s_psp_Prime_Energy_Solvent_Model>
VSGB2.1

> <r_psp_Prime_Hbond>
-553.935508587093

> <r_psp_Prime_Packing>
-110.710548270696

> <r_psp_Prime_SelfCont>
-119.99017161316

> <b_ppw_ran_protassign>
1

$$$$
