H8G
                    3D
 Structure written by MMmdl.
 52 55  0  0  1  0            999 V2000
  -22.9180  -12.2250  144.7980 C   0  0  0  0  0  0
  -24.6240  -15.5800  146.9470 C   0  0  0  0  0  0
  -26.6920  -12.4690  138.8250 C   0  0  0  0  0  0
  -27.5690  -11.7200  142.8760 C   0  0  0  0  0  0
  -30.6600   -8.5920  143.7260 C   0  0  0  0  0  0
  -29.8350   -9.7290  143.5430 C   0  0  0  0  0  0
  -30.7910   -7.5750  142.7800 C   0  0  0  0  0  0
  -29.0860   -7.5850  139.5850 C   0  0  0  0  0  0
  -23.4920  -13.5920  144.4570 C   0  0  0  0  0  0
  -24.6460  -14.1190  146.6340 C   0  0  0  0  0  0
  -27.7200   -9.8750  139.7290 C   0  0  0  0  0  0
  -27.0390  -13.4180  141.0000 C   0  0  0  0  0  0
  -25.9220  -13.7780  144.5720 C   0  0  0  0  0  0
  -28.2110  -10.9720  141.9820 C   0  0  0  0  0  0
  -28.6480   -8.7590  140.1430 C   0  0  0  0  0  0
  -29.1240   -9.8600  142.3510 C   0  0  0  0  0  0
  -30.0790   -7.7190  141.5940 C   0  0  0  0  0  0
  -29.2810   -8.8490  141.3980 C   0  0  0  0  0  0
  -27.1520  -13.1500  142.5250 C   0  0  1  0  0  0
  -28.0160  -11.2180  140.4740 C   0  0  2  0  0  0
  -25.9210  -13.5010  143.2230 N   0  0  0  0  0  0
  -29.9420   -6.9370  140.4780 N   0  0  0  0  0  0
  -26.8880  -12.1620  140.2540 N   0  3  2  0  0  0
  -24.7350  -13.8650  145.1870 N   0  0  0  0  0  0
  -26.9980  -13.8960  145.2460 O   0  0  0  0  0  0
  -21.9985  -12.0656  144.2347 H   0  0  0  0  0  0
  -23.6411  -11.4517  144.5385 H   0  0  0  0  0  0
  -22.7026  -12.1768  145.8654 H   0  0  0  0  0  0
  -24.5577  -15.7200  148.0259 H   0  0  0  0  0  0
  -25.5373  -16.0453  146.5762 H   0  0  0  0  0  0
  -23.7609  -16.0419  146.4675 H   0  0  0  0  0  0
  -26.5792  -11.5404  138.2655 H   0  0  0  0  0  0
  -25.7957  -13.0772  138.7031 H   0  0  0  0  0  0
  -27.5560  -13.0167  138.4487 H   0  0  0  0  0  0
  -27.3410  -11.3182  143.8522 H   0  0  0  0  0  0
  -31.2299   -8.4792  144.6365 H   0  0  0  0  0  0
  -29.7649  -10.4760  144.3199 H   0  0  0  0  0  0
  -31.4242   -6.7246  142.9856 H   0  0  0  0  0  0
  -28.7558   -7.3006  138.5968 H   0  0  0  0  0  0
  -22.7573  -14.3624  144.6912 H   0  0  0  0  0  0
  -23.6812  -13.6486  143.3850 H   0  0  0  0  0  0
  -23.7452  -13.6499  147.0297 H   0  0  0  0  0  0
  -25.4937  -13.6533  147.1366 H   0  0  0  0  0  0
  -26.6885   -9.5766  139.9164 H   0  0  0  0  0  0
  -27.8000  -10.0323  138.6534 H   0  0  0  0  0  0
  -27.9323  -13.9392  140.6560 H   0  0  0  0  0  0
  -26.1796  -14.0602  140.8071 H   0  0  0  0  0  0
  -27.9315  -13.8099  142.9058 H   0  0  0  0  0  0
  -28.9275  -11.6551  140.0663 H   0  0  0  0  0  0
  -25.0576  -13.5392  142.7003 H   0  0  0  0  0  0
  -30.3388   -6.0401  140.2366 H   0  0  0  0  0  0
  -26.0469  -11.7118  140.5855 H   0  0  0  0  0  0
  1  9  1  0  0  0
  1 26  1  0  0  0
  1 27  1  0  0  0
  1 28  1  0  0  0
  2 10  1  0  0  0
  2 29  1  0  0  0
  2 30  1  0  0  0
  2 31  1  0  0  0
  3 23  1  0  0  0
  3 32  1  0  0  0
  3 33  1  0  0  0
  3 34  1  0  0  0
  4 14  2  0  0  0
  4 19  1  0  0  0
  4 35  1  0  0  0
  5  6  1  0  0  0
  5  7  2  0  0  0
  5 36  1  0  0  0
  6 16  2  0  0  0
  6 37  1  0  0  0
  7 17  1  0  0  0
  7 38  1  0  0  0
  8 15  2  0  0  0
  8 22  1  0  0  0
  8 39  1  0  0  0
  9 24  1  0  0  0
  9 40  1  0  0  0
  9 41  1  0  0  0
 10 24  1  0  0  0
 10 42  1  0  0  0
 10 43  1  0  0  0
 11 15  1  0  0  0
 11 20  1  0  0  0
 11 44  1  0  0  0
 11 45  1  0  0  0
 12 19  1  0  0  0
 12 23  1  0  0  0
 12 46  1  0  0  0
 12 47  1  0  0  0
 13 21  1  0  0  0
 13 24  1  0  0  0
 13 25  2  0  0  0
 14 16  1  0  0  0
 14 20  1  0  0  0
 15 18  1  0  0  0
 16 18  1  0  0  0
 17 18  2  0  0  0
 17 22  1  0  0  0
 19 21  1  0  0  0
 19 48  1  0  0  0
 20 23  1  0  0  0
 20 49  1  0  0  0
 21 50  1  0  0  0
 22 51  1  0  0  0
 23 52  1  0  0  0
M  CHG  1  23   1
M  END
> <i_m_stars>
0

> <s_m_entry_id>
6

> <s_m_entry_name>
Structure6

> <s_pdb_PDB_TITLE>
CRYSTAL STRUCTURE OF SEROTONIN 2A RECEPTOR IN COMPLEX WITH LISURIDE

> <s_pdb_PDB_ID>
7WC7

> <r_pdb_PDB_CRYST1_a>
50.08

> <r_pdb_PDB_CRYST1_b>
54.51

> <r_pdb_PDB_CRYST1_c>
179.04

> <r_pdb_PDB_CRYST1_alpha>
90

> <r_pdb_PDB_CRYST1_beta>
90

> <r_pdb_PDB_CRYST1_gamma>
90

> <s_pdb_PDB_CRYST1_Space_Group>
P 21 2 21

> <i_pdb_PDB_CRYST1_z>
4

> <s_pdb_PDB_CLASSIFICATION>
MEMBRANE PROTEIN

> <s_pdb_PDB_DEPOSITION_DATE>
18-DEC-21

> <s_pdb_PDB_format_version>
3.30

> <r_pdb_PDB_R>
0.233999997377396

> <r_pdb_PDB_Rfree>
0.256000012159348

> <r_pdb_PDB_RESOLUTION>
2.6

> <s_pdb_PDB_EXPDTA>
X-RAY DIFFRACTION

> <r_pdb_PDB_EXPDTA_TEMPERATURE>
100

> <r_pdb_PDB_EXPDTA_PH>
7

> <s_pdb_PDB_REMARK_350_Biomolecule_1_Chains>
A

> <s_pdb_PDB_REMARK_350_Biomolecule_1_Transformation_1>
1.000000 0.000000 0.000000   0.000000;0.000000 1.000000 0.000000   0.000000;0.000000 0.000000 1.000000   0.000000

> <s_m_Source_Path>
D:\Research\Benchmark_Tarpass\Targets\5TH2A

> <s_m_Source_File>
7wc7.pdb

> <i_m_Source_File_Index>
1

> <s_ppw_entry_id_backup>
3

> <b_ppw_prepared>
1

> <s_ppw_prepared_with_version>
2018-1

> <b_ppw_assigned_bond_orders>
1

> <b_ppw_added_hydrogens>
1

> <b_ppw_treated_metals>
1

> <b_ppw_created_disulfur>
1

> <b_ppw_deleted_far_waters>
1

> <i_psp_model_num>
0

> <r_psp_Prime_Coulomb>
-11010.0719988789

> <r_psp_Prime_Covalent>
1966.43872529104

> <r_psp_Prime_vdW>
-83.1978773690119

> <r_psp_Prime_Solv_GB>
-1743.65889181497

> <r_psp_Prime_Lipo>
-927.313370931331

> <r_psp_Prime_Energy>
-12082.6517905836

> <s_psp_Prime_Energy_Force_Field>
OPLS3

> <s_psp_Prime_Energy_Solvent_Model>
VSGB2.1

> <r_psp_Prime_Hbond>
-209.508178798051

> <r_psp_Prime_Packing>
-26.8026543090814

> <r_psp_Prime_SelfCont>
-48.5375437732821

> <b_ppw_removed_non_hbond_waters>
1

$$$$
